


 12 13  0  0000  0  0  0  0  0999 V2000
    2.1139    0.0000    0.0000 O   0  0  0  0  0  0  0  0  0  0  0
    0.5274   -1.2194    0.0000 N   0  0  0  0  0  0  0  0  0  0  0
    1.4177   -2.1055    0.0000 C   0  0  0  0  0  0  0  0  0  0  0
    2.6751   -2.1055    0.0000 C   0  0  0  0  0  0  0  0  0  0  0
    1.0928   -3.3249    0.0000 C   0  0  0  0  0  0  0  0  0  0  0
    0.3249   -2.7384    0.0000 C   0  0  0  0  0  0  0  0  0  0  0
    3.0042   -0.8903    0.0000 C   0  0  0  0  0  0  0  0  0  0  0
    0.0000   -3.9536    0.0000 C   0  0  0  0  0  0  0  0  0  0  0
    3.7680   -2.7384    0.0000 C   0  0  0  0  0  0  0  0  0  0  0
    2.3502   -3.3249    0.0000 C   0  0  0  0  0  0  0  0  0  0  0
    3.4431   -3.9536    0.0000 C   0  0  0  0  0  0  0  0  0  0  0
    4.2194   -0.5654    0.0000 C   0  0  0  0  0  0  0  0  0  0  0
  1  7  2  0
  2  3  1  0
  2  5  1  0
  3  4  1  0
  3  6  1  0
  4  7  1  0
  4  9  2  0
  5  8  1  0
  5 10  1  0
  6  8  1  0
  7 12  1  0
  9 11  1  0
 10 11  1  0
M  END

> <StdInChI>
InChI=1S/C10H15NO/c1-7(12)9-4-2-3-8-5-6-10(9)11-8/h4,8,10-11H,2-3,5-6H2,1H3

> <StdInChIKey>
SGNXVBOIDPPRJJ-UHFFFAOYSA-N

> <AuxInfo>
1/0/N:12,11,10,9,8,6,7,5,4,3,2,1/rA:12nONCCCCCCCCCC/rB:;s2;s3;s2;s3;d1s4;s5s6;d4;s5;s9s10;s7;/rC:2.1139,0,0;.5274,-1.2194,0;1.4177,-2.1055,0;2.6751,-2.1055,0;1.0928,-3.3249,0;.3249,-2.7384,0;3.0042,-.8903,0;0,-3.9536,0;3.768,-2.7384,0;2.3502,-3.3249,0;3.4431,-3.9536,0;4.2194,-.5654,0;

> <Formula>
C10 H15 N O

> <Mw>
165.2322

> <SMILES>
O=C(C)C1=CCCC2CCC1N2

> <CSID>
381822

$$$$
